<?xml version="1.0" encoding="UTF-8"?>

<!-- generated on 04/22/16 00:49:27 by SUMO jtrrouter Version 0.24.0
<?xml version="1.0" encoding="UTF-8"?>

<configuration xmlns:xsi="http://www.w3.org/2001/XMLSchema-instance" xsi:noNamespaceSchemaLocation="http://sumo.dlr.de/xsd/jtrrouterConfiguration.xsd">

    <input>
        <net-file value="huntingtonColorado.net.xml"/>
        <flow-files value="huntingtonColorado_exp.flows.xml"/>
        <turn-ratio-files value="huntingtonColorado.turns.xml"/>
    </input>

    <output>
        <output-file value="huntingtonColorado_exp.rou.xml"/>
    </output>

    <processing>
        <ignore-errors value="true"/>
    </processing>

    <report>
        <xml-validation value="never"/>
        <no-step-log value="true"/>
    </report>

</configuration>
-->

<routes xmlns:xsi="http://www.w3.org/2001/XMLSchema-instance" xsi:noNamespaceSchemaLocation="http://sumo.dlr.de/xsd/routes_file.xsd">
    <vehicle id="type0.0" depart="0.00" color="red">
        <route edges="2to14 14to1 1to15 15to6 6to7 7to18 18to19 19to21 21to23 23to24 24to25 25to26 26to27 27to28 28to39 39to29 29to30 30to31 31to34 34to35 35to36 36to37 37to38 38to40 40to42 42to43 43to46 46to47 47to50 50to51 51to52 52to53"/>
    </vehicle>
    <vehicle id="type1.0" depart="0.00" color="green">
        <route edges="5to4 4to16 16to1 1to17 17to3"/>
    </vehicle>
    <vehicle id="type10.0" depart="0.00" color="cyan">
        <route edges="48to47 47to49"/>
    </vehicle>
    <vehicle id="type11.0" depart="0.00" color="cyan">
        <route edges="54to52 52to51 51to50 50to47 47to46 46to43 43to42 42to40 40to41"/>
    </vehicle>
    <vehicle id="type12.0" depart="0.00" color="cyan">
        <route edges="53to52 52to54"/>
    </vehicle>
    <vehicle id="type13.0" depart="0.00" color="cyan">
        <route edges="61to60 60to57 57to62 62to63 63to64 64to67 67to68 68to69 69to72 72to73 73to76 76to81 81to83"/>
    </vehicle>
    <vehicle id="type14.0" depart="0.00" color="cyan">
        <route edges="59to58 58to57 57to60 60to61"/>
    </vehicle>
    <vehicle id="type15.0" depart="0.00" color="cyan">
        <route edges="66to64 64to63 63to62 62to57 57to60 60to61"/>
    </vehicle>
    <vehicle id="type17.0" depart="0.00" color="cyan">
        <route edges="71to69 69to72 72to73 73to76 76to81 81to83"/>
    </vehicle>
    <vehicle id="type18.0" depart="0.00" color="cyan">
        <route edges="70to69 69to68 68to67 67to64 64to63 63to62 62to57 57to60 60to61"/>
    </vehicle>
    <vehicle id="type2.0" depart="0.00" color="blue">
        <route edges="3to17 17to1 1to16 16to4 4to5"/>
    </vehicle>
    <vehicle id="type20.0" depart="0.00" color="cyan">
        <route edges="75to73 73to72 72to69 69to68 68to67 67to64 64to63 63to62 62to57 57to56 56to55 55to52 52to51 51to50 50to47 47to46 46to43 43to45"/>
    </vehicle>
    <vehicle id="type21.0" depart="0.00" color="cyan">
        <route edges="82to81 81to76 76to73 73to72 72to69 69to68 68to67 67to64 64to63 63to62 62to57 57to60 60to61"/>
    </vehicle>
    <vehicle id="type22.0" depart="0.00" color="cyan">
        <route edges="83to81 81to76 76to73 73to72 72to69 69to68 68to67 67to64 64to63 63to62 62to57 57to56 56to55 55to52 52to51 51to50 50to47 47to46 46to43 43to42 42to40 40to38 38to37 37to36 36to35 35to34 34to31 31to30 30to29 29to39 39to28 28to27 27to26 26to25 25to24 24to23 23to21 21to19 19to18 18to7 7to6 6to15 15to1 1to14 14to2"/>
    </vehicle>
    <vehicle id="type4.0" depart="0.00" color="yellow">
        <route edges="20to19 19to18 18to7 7to6 6to15 15to1 1to16 16to4 4to5"/>
    </vehicle>
    <vehicle id="type5.0" depart="0.00" color="magenta">
        <route edges="22to21 21to23 23to24 24to25 25to26 26to27 27to28 28to39 39to29 29to30 30to31 31to34 34to35 35to36 36to37 37to38 38to40 40to42 42to43 43to46 46to47 47to49"/>
    </vehicle>
    <vehicle id="type6.0" depart="0.00" color="cyan">
        <route edges="33to32 32to30 30to31 31to34 34to35 35to36 36to37 37to38 38to40 40to42 42to43 43to46 46to47 47to50 50to51 51to52 52to53"/>
    </vehicle>
    <vehicle id="type7.0" depart="0.00" color="cyan">
        <route edges="44to43 43to45"/>
    </vehicle>
    <vehicle id="type8.0" depart="0.00" color="cyan">
        <route edges="45to43 43to42 42to40 40to41"/>
    </vehicle>
    <vehicle id="type9.0" depart="0.00" color="cyan">
        <route edges="49to47 47to50 50to51 51to52 52to55 55to56 56to57 57to62 62to63 63to64 64to65"/>
    </vehicle>
    <vehicle id="type0.1" depart="1.80" color="red">
        <route edges="2to14 14to1 1to15 15to6 6to7 7to18 18to19 19to21 21to23 23to24 24to25 25to26 26to27 27to28 28to39 39to29 29to30 30to32 32to33"/>
    </vehicle>
    <vehicle id="type22.1" depart="3.27" color="cyan">
        <route edges="83to81 81to76 76to73 73to72 72to69 69to68 68to67 67to64 64to63 63to62 62to57 57to56 56to55 55to52 52to51 51to50 50to47 47to46 46to43 43to45"/>
    </vehicle>
    <vehicle id="type0.2" depart="3.59" color="red">
        <route edges="2to14 14to1 1to16 16to4 4to5"/>
    </vehicle>
    <vehicle id="type7.1" depart="3.71" color="cyan">
        <route edges="44to43 43to42 42to40 40to38 38to37 37to36 36to35 35to34 34to31 31to30 30to29 29to39 39to28 28to27 27to26 26to25 25to24 24to23 23to21 21to19 19to18 18to7 7to6 6to15 15to1 1to16 16to4 4to5"/>
    </vehicle>
    <vehicle id="type9.1" depart="3.71" color="cyan">
        <route edges="49to47 47to48"/>
    </vehicle>
    <vehicle id="type10.1" depart="3.98" color="cyan">
        <route edges="48to47 47to50 50to51 51to52 52to54"/>
    </vehicle>
    <vehicle id="type1.1" depart="4.00" color="green">
        <route edges="5to4 4to16 16to1 1to15 15to6 6to7 7to18 18to19 19to21 21to23 23to24 24to25 25to26 26to27 27to28 28to39 39to29 29to30 30to31 31to34 34to35 35to36 36to37 37to38 38to40 40to41"/>
    </vehicle>
    <vehicle id="type2.1" depart="4.21" color="blue">
        <route edges="3to17 17to1 1to14 14to2"/>
    </vehicle>
    <vehicle id="type0.3" depart="5.39" color="red">
        <route edges="2to14 14to1 1to15 15to6 6to7 7to18 18to19 19to21 21to23 23to24 24to25 25to26 26to27 27to28 28to39 39to29 29to30 30to31 31to34 34to35 35to36 36to37 37to38 38to40 40to42 42to43 43to46 46to47 47to50 50to51 51to52 52to55 55to56 56to57 57to62 62to63 63to64 64to67 67to68 68to69 69to72 72to73 73to76 76to81 81to83"/>
    </vehicle>
    <vehicle id="type21.1" depart="6.49" color="cyan">
        <route edges="82to81 81to76 76to73 73to72 72to69 69to68 68to67 67to64 64to63 63to62 62to57 57to60 60to61"/>
    </vehicle>
    <vehicle id="type22.2" depart="6.54" color="cyan">
        <route edges="83to81 81to76 76to73 73to72 72to69 69to68 68to67 67to64 64to63 63to62 62to57 57to60 60to61"/>
    </vehicle>
    <vehicle id="type0.4" depart="7.18" color="red">
        <route edges="2to14 14to1 1to15 15to6 6to7 7to18 18to19 19to21 21to23 23to24 24to25 25to26 26to27 27to28 28to39 39to29 29to30 30to32 32to33"/>
    </vehicle>
    <vehicle id="type13.1" depart="7.24" color="cyan">
        <route edges="61to60 60to57 57to62 62to63 63to64 64to66"/>
    </vehicle>
    <vehicle id="type7.2" depart="7.43" color="cyan">
        <route edges="44to43 43to45"/>
    </vehicle>
    <vehicle id="type9.2" depart="7.43" color="cyan">
        <route edges="49to47 47to48"/>
    </vehicle>
    <vehicle id="type10.2" depart="7.95" color="cyan">
        <route edges="48to47 47to49"/>
    </vehicle>
    <vehicle id="type1.2" depart="8.00" color="green">
        <route edges="5to4 4to16 16to1 1to17 17to3"/>
    </vehicle>
    <vehicle id="type2.2" depart="8.43" color="blue">
        <route edges="3to17 17to1 1to15 15to6 6to7 7to18 18to19 19to21 21to23 23to24 24to25 25to26 26to27 27to28 28to39 39to29 29to30 30to32 32to33"/>
    </vehicle>
    <vehicle id="type14.1" depart="8.63" color="cyan">
        <route edges="59to58 58to57 57to60 60to61"/>
    </vehicle>
    <vehicle id="type0.5" depart="8.98" color="red">
        <route edges="2to14 14to1 1to15 15to6 6to7 7to18 18to19 19to21 21to23 23to24 24to25 25to26 26to27 27to28 28to39 39to29 29to30 30to31 31to34 34to35 35to36 36to37 37to38 38to40 40to42 42to43 43to46 46to47 47to49"/>
    </vehicle>
    <vehicle id="type22.3" depart="9.82" color="cyan">
        <route edges="83to81 81to76 76to73 73to72 72to69 69to68 68to67 67to64 64to63 63to62 62to57 57to56 56to55 55to52 52to51 51to50 50to47 47to46 46to43 43to42 42to40 40to38 38to37 37to36 36to35 35to34 34to31 31to30 30to29 29to39 39to28 28to27 27to26 26to25 25to24 24to23 23to21 21to19 19to18 18to7 7to6 6to15 15to1 1to14 14to2"/>
    </vehicle>
    <vehicle id="type20.1" depart="10.11" color="cyan">
        <route edges="75to73 73to76 76to81 81to83"/>
    </vehicle>
    <vehicle id="type0.6" depart="10.78" color="red">
        <route edges="2to14 14to1 1to15 15to6 6to7 7to18 18to19 19to21 21to23 23to24 24to25 25to26 26to27 27to28 28to39 39to29 29to30 30to31 31to34 34to35 35to36 36to37 37to38 38to40 40to42 42to43 43to46 46to47 47to49"/>
    </vehicle>
    <vehicle id="type7.3" depart="11.15" color="cyan">
        <route edges="44to43 43to45"/>
    </vehicle>
    <vehicle id="type9.3" depart="11.15" color="cyan">
        <route edges="49to47 47to48"/>
    </vehicle>
    <vehicle id="type10.3" depart="11.93" color="cyan">
        <route edges="48to47 47to49"/>
    </vehicle>
    <vehicle id="type1.3" depart="12.00" color="green">
        <route edges="5to4 4to16 16to1 1to15 15to6 6to7 7to18 18to19 19to21 21to23 23to24 24to25 25to26 26to27 27to28 28to39 39to29 29to30 30to32 32to33"/>
    </vehicle>
    <vehicle id="type8.1" depart="12.12" color="cyan">
        <route edges="45to43 43to42 42to40 40to41"/>
    </vehicle>
    <vehicle id="type0.7" depart="12.57" color="red">
        <route edges="2to14 14to1 1to15 15to6 6to7 7to18 18to19 19to21 21to23 23to24 24to25 25to26 26to27 27to28 28to39 39to29 29to30 30to31 31to34 34to35 35to36 36to37 37to38 38to40 40to42 42to43 43to46 46to47 47to49"/>
    </vehicle>
    <vehicle id="type2.3" depart="12.65" color="blue">
        <route edges="3to17 17to1 1to16 16to4 4to5"/>
    </vehicle>
    <vehicle id="type21.2" depart="12.97" color="cyan">
        <route edges="82to81 81to76 76to73 73to72 72to69 69to68 68to67 67to64 64to63 63to62 62to57 57to56 56to55 55to52 52to51 51to50 50to47 47to46 46to43 43to45"/>
    </vehicle>
    <vehicle id="type22.4" depart="13.09" color="cyan">
        <route edges="83to81 81to76 76to73 73to72 72to69 69to70"/>
    </vehicle>
    <vehicle id="type0.8" depart="14.37" color="red">
        <route edges="2to14 14to1 1to17 17to3"/>
    </vehicle>
    <vehicle id="type13.2" depart="14.49" color="cyan">
        <route edges="61to60 60to57 57to62 62to63 63to64 64to67 67to68 68to69 69to71"/>
    </vehicle>
    <vehicle id="type7.4" depart="14.86" color="cyan">
        <route edges="44to43 43to45"/>
    </vehicle>
    <vehicle id="type9.4" depart="14.86" color="cyan">
        <route edges="49to47 47to48"/>
    </vehicle>
    <vehicle id="type10.4" depart="15.91" color="cyan">
        <route edges="48to47 47to49"/>
    </vehicle>
    <vehicle id="type1.4" depart="16.00" color="green">
        <route edges="5to4 4to16 16to1 1to15 15to6 6to7 7to18 18to19 19to21 21to23 23to24 24to25 25to26 26to27 27to28 28to39 39to29 29to30 30to31 31to34 34to35 35to36 36to37 37to38 38to40 40to42 42to43 43to46 46to47 47to50 50to51 51to52 52to55 55to56 56to57 57to62 62to63 63to64 64to67 67to68 68to69 69to72 72to73 73to76 76to81 81to83"/>
    </vehicle>
    <vehicle id="type6.1" depart="16.07" color="cyan">
        <route edges="33to32 32to30 30to29 29to39 39to28 28to27 27to26 26to25 25to24 24to23 23to21 21to19 19to18 18to7 7to6 6to15 15to1 1to14 14to2"/>
    </vehicle>
    <vehicle id="type0.9" depart="16.16" color="red">
        <route edges="2to14 14to1 1to15 15to6 6to7 7to18 18to19 19to21 21to23 23to24 24to25 25to26 26to27 27to28 28to39 39to29 29to30 30to31 31to34 34to35 35to36 36to37 37to38 38to40 40to42 42to43 43to46 46to47 47to50 50to51 51to52 52to55 55to56 56to57 57to60 60to61"/>
    </vehicle>
    <vehicle id="type22.5" depart="16.36" color="cyan">
        <route edges="83to81 81to76 76to73 73to72 72to69 69to68 68to67 67to64 64to63 63to62 62to57 57to58 58to59"/>
    </vehicle>
    <vehicle id="type2.4" depart="16.86" color="blue">
        <route edges="3to17 17to1 1to16 16to4 4to13 13to12 12to11 11to10 10to9 9to8"/>
    </vehicle>
    <vehicle id="type14.2" depart="17.27" color="cyan">
        <route edges="59to58 58to57 57to60 60to61"/>
    </vehicle>
    <vehicle id="type0.10" depart="17.96" color="red">
        <route edges="2to14 14to1 1to15 15to6 6to7 7to18 18to19 19to21 21to23 23to24 24to25 25to26 26to27 27to28 28to39 39to29 29to30 30to31 31to34 34to35 35to36 36to37 37to38 38to40 40to42 42to43 43to46 46to47 47to48"/>
    </vehicle>
    <vehicle id="type11.1" depart="18.00" color="cyan">
        <route edges="54to52 52to53"/>
    </vehicle>
    <vehicle id="type12.1" depart="18.00" color="cyan">
        <route edges="53to52 52to54"/>
    </vehicle>
    <vehicle id="type15.1" depart="18.00" color="cyan">
        <route edges="66to64 64to67 67to68 68to69 69to72 72to73 73to76 76to81 81to83"/>
    </vehicle>
    <vehicle id="type17.1" depart="18.00" color="cyan">
        <route edges="71to69 69to70"/>
    </vehicle>
    <vehicle id="type18.1" depart="18.00" color="cyan">
        <route edges="70to69 69to71"/>
    </vehicle>
    <vehicle id="type4.1" depart="18.00" color="yellow">
        <route edges="20to19 19to18 18to7 7to6 6to15 15to1 1to14 14to2"/>
    </vehicle>
    <vehicle id="type5.1" depart="18.00" color="magenta">
        <route edges="22to21 21to23 23to24 24to25 25to26 26to27 27to28 28to39 39to29 29to30 30to32 32to33"/>
    </vehicle>
    <vehicle id="type7.5" depart="18.57" color="cyan">
        <route edges="44to43 43to45"/>
    </vehicle>
    <vehicle id="type9.5" depart="18.57" color="cyan">
        <route edges="49to47 47to48"/>
    </vehicle>
    <vehicle id="type21.3" depart="19.46" color="cyan">
        <route edges="82to81 81to76 76to73 73to72 72to69 69to70"/>
    </vehicle>
    <vehicle id="type22.6" depart="19.63" color="cyan">
        <route edges="83to81 81to82"/>
    </vehicle>
    <vehicle id="type0.11" depart="19.76" color="red">
        <route edges="2to14 14to1 1to16 16to4 4to13 13to12 12to11 11to10 10to9 9to8"/>
    </vehicle>
    <vehicle id="type10.5" depart="19.89" color="cyan">
        <route edges="48to47 47to49"/>
    </vehicle>
    <vehicle id="type1.5" depart="20.00" color="green">
        <route edges="5to4 4to16 16to1 1to17 17to3"/>
    </vehicle>
    <vehicle id="type20.2" depart="20.22" color="cyan">
        <route edges="75to73 73to76 76to81 81to83"/>
    </vehicle>
    <vehicle id="type2.5" depart="21.07" color="blue">
        <route edges="3to17 17to1 1to16 16to4 4to5"/>
    </vehicle>
    <vehicle id="type0.12" depart="21.55" color="red">
        <route edges="2to14 14to1 1to15 15to6 6to7 7to18 18to19 19to21 21to23 23to24 24to25 25to26 26to27 27to28 28to39 39to29 29to30 30to31 31to34 34to35 35to36 36to37 37to38 38to40 40to41"/>
    </vehicle>
    <vehicle id="type13.3" depart="21.73" color="cyan">
        <route edges="61to60 60to57 57to62 62to63 63to64 64to67 67to68 68to69 69to72 72to73 73to76 76to81 81to82"/>
    </vehicle>
    <vehicle id="type7.6" depart="22.29" color="cyan">
        <route edges="44to43 43to45"/>
    </vehicle>
    <vehicle id="type9.6" depart="22.29" color="cyan">
        <route edges="49to47 47to50 50to51 51to52 52to55 55to56 56to57 57to62 62to63 63to64 64to65"/>
    </vehicle>
    <vehicle id="type22.7" depart="22.90" color="cyan">
        <route edges="83to81 81to76 76to73 73to72 72to69 69to68 68to67 67to64 64to63 63to62 62to57 57to56 56to55 55to52 52to51 51to50 50to47 47to49"/>
    </vehicle>
    <vehicle id="type0.13" depart="23.35" color="red">
        <route edges="2to14 14to1 1to16 16to4 4to5"/>
    </vehicle>
    <vehicle id="type10.6" depart="23.86" color="cyan">
        <route edges="48to47 47to49"/>
    </vehicle>
    <vehicle id="type1.6" depart="24.00" color="green">
        <route edges="5to4 4to16 16to1 1to17 17to3"/>
    </vehicle>
    <vehicle id="type8.2" depart="24.24" color="cyan">
        <route edges="45to43 43to42 42to40 40to41"/>
    </vehicle>
    <vehicle id="type0.14" depart="25.14" color="red">
        <route edges="2to14 14to1 1to15 15to6 6to7 7to18 18to19 19to21 21to23 23to24 24to25 25to26 26to27 27to28 28to39 39to29 29to30 30to31 31to34 34to35 35to36 36to37 37to38 38to40 40to42 42to43 43to46 46to47 47to50 50to51 51to52 52to55 55to56 56to57 57to62 62to63 63to64 64to67 67to68 68to69 69to71"/>
    </vehicle>
    <vehicle id="type2.6" depart="25.29" color="blue">
        <route edges="3to17 17to1 1to16 16to4 4to5"/>
    </vehicle>
    <vehicle id="type14.3" depart="25.90" color="cyan">
        <route edges="59to58 58to57 57to60 60to61"/>
    </vehicle>
    <vehicle id="type21.4" depart="25.94" color="cyan">
        <route edges="82to81 81to76 76to73 73to72 72to69 69to68 68to67 67to64 64to63 63to62 62to57 57to60 60to61"/>
    </vehicle>
    <vehicle id="type7.7" depart="26.00" color="cyan">
        <route edges="44to43 43to45"/>
    </vehicle>
    <vehicle id="type9.7" depart="26.00" color="cyan">
        <route edges="49to47 47to46 46to43 43to42 42to40 40to38 38to37 37to36 36to35 35to34 34to31 31to30 30to29 29to39 39to28 28to27 27to26 26to25 25to24 24to23 23to21 21to19 19to18 18to7 7to6 6to15 15to1 1to16 16to4 4to13 13to12 12to11 11to10 10to9 9to8"/>
    </vehicle>
    <vehicle id="type22.8" depart="26.18" color="cyan">
        <route edges="83to81 81to76 76to73 73to72 72to69 69to68 68to67 67to64 64to63 63to62 62to57 57to56 56to55 55to52 52to51 51to50 50to47 47to46 46to43 43to42 42to40 40to41"/>
    </vehicle>
    <vehicle id="type0.15" depart="26.94" color="red">
        <route edges="2to14 14to1 1to15 15to6 6to7 7to18 18to19 19to21 21to23 23to24 24to25 25to26 26to27 27to28 28to39 39to29 29to30 30to32 32to33"/>
    </vehicle>
    <vehicle id="type10.7" depart="27.84" color="cyan">
        <route edges="48to47 47to46 46to43 43to45"/>
    </vehicle>
    <vehicle id="type1.7" depart="28.00" color="green">
        <route edges="5to4 4to16 16to1 1to17 17to3"/>
    </vehicle>
    <vehicle id="type0.16" depart="28.74" color="red">
        <route edges="2to14 14to1 1to15 15to6 6to7 7to18 18to19 19to21 21to23 23to24 24to25 25to26 26to27 27to28 28to39 39to29 29to30 30to31 31to34 34to35 35to36 36to37 37to38 38to40 40to42 42to43 43to46 46to47 47to50 50to51 51to52 52to53"/>
    </vehicle>
    <vehicle id="type13.4" depart="28.97" color="cyan">
        <route edges="61to60 60to57 57to62 62to63 63to64 64to67 67to68 68to69 69to72 72to73 73to76 76to81 81to83"/>
    </vehicle>
    <vehicle id="type22.9" depart="29.45" color="cyan">
        <route edges="83to81 81to76 76to73 73to72 72to69 69to68 68to67 67to64 64to63 63to62 62to57 57to56 56to55 55to52 52to51 51to50 50to47 47to46 46to43 43to45"/>
    </vehicle>
    <vehicle id="type2.7" depart="29.50" color="blue">
        <route edges="3to17 17to1 1to15 15to6 6to7 7to18 18to19 19to20"/>
    </vehicle>
    <vehicle id="type7.8" depart="29.72" color="cyan">
        <route edges="44to43 43to42 42to40 40to41"/>
    </vehicle>
    <vehicle id="type9.8" depart="29.72" color="cyan">
        <route edges="49to47 47to48"/>
    </vehicle>
    <vehicle id="type20.3" depart="30.34" color="cyan">
        <route edges="75to73 73to76 76to81 81to82"/>
    </vehicle>
    <vehicle id="type0.17" depart="30.53" color="red">
        <route edges="2to14 14to1 1to15 15to6 6to7 7to18 18to19 19to21 21to23 23to24 24to25 25to26 26to27 27to28 28to39 39to29 29to30 30to31 31to34 34to35 35to36 36to37 37to38 38to40 40to42 42to43 43to46 46to47 47to49"/>
    </vehicle>
    <vehicle id="type10.8" depart="31.82" color="cyan">
        <route edges="48to47 47to49"/>
    </vehicle>
    <vehicle id="type1.8" depart="32.00" color="green">
        <route edges="5to4 4to16 16to1 1to17 17to3"/>
    </vehicle>
    <vehicle id="type6.2" depart="32.14" color="cyan">
        <route edges="33to32 32to30 30to29 29to39 39to28 28to27 27to26 26to25 25to24 24to23 23to21 21to22"/>
    </vehicle>
    <vehicle id="type0.18" depart="32.33" color="red">
        <route edges="2to14 14to1 1to15 15to6 6to7 7to18 18to19 19to21 21to23 23to24 24to25 25to26 26to27 27to28 28to39 39to29 29to30 30to31 31to34 34to35 35to36 36to37 37to38 38to40 40to42 42to43 43to46 46to47 47to50 50to51 51to52 52to55 55to56 56to57 57to62 62to63 63to64 64to67 67to68 68to69 69to72 72to73 73to76 76to81 81to83"/>
    </vehicle>
    <vehicle id="type21.5" depart="32.43" color="cyan">
        <route edges="82to81 81to76 76to73 73to72 72to69 69to68 68to67 67to64 64to63 63to62 62to57 57to56 56to55 55to52 52to51 51to50 50to47 47to46 46to43 43to45"/>
    </vehicle>
    <vehicle id="type22.10" depart="32.72" color="cyan">
        <route edges="83to81 81to82"/>
    </vehicle>
    <vehicle id="type7.9" depart="33.44" color="cyan">
        <route edges="44to43 43to45"/>
    </vehicle>
    <vehicle id="type9.9" depart="33.44" color="cyan">
        <route edges="49to47 47to46 46to43 43to45"/>
    </vehicle>
    <vehicle id="type2.8" depart="33.72" color="blue">
        <route edges="3to17 17to1 1to15 15to6 6to7 7to18 18to19 19to21 21to23 23to24 24to25 25to26 26to27 27to28 28to39 39to29 29to30 30to31 31to34 34to35 35to36 36to37 37to38 38to40 40to42 42to43 43to46 46to47 47to50 50to51 51to52 52to55 55to56 56to57 57to62 62to63 63to64 64to67 67to68 68to69 69to71"/>
    </vehicle>
    <vehicle id="type0.19" depart="34.12" color="red">
        <route edges="2to14 14to1 1to15 15to6 6to7 7to18 18to19 19to21 21to23 23to24 24to25 25to26 26to27 27to28 28to39 39to29 29to30 30to32 32to33"/>
    </vehicle>
    <vehicle id="type14.4" depart="34.53" color="cyan">
        <route edges="59to58 58to57 57to60 60to61"/>
    </vehicle>
    <vehicle id="type10.9" depart="35.79" color="cyan">
        <route edges="48to47 47to49"/>
    </vehicle>
    <vehicle id="type0.20" depart="35.92" color="red">
        <route edges="2to14 14to1 1to15 15to6 6to7 7to18 18to19 19to20"/>
    </vehicle>
    <vehicle id="type22.11" depart="35.99" color="cyan">
        <route edges="83to81 81to82"/>
    </vehicle>
    <vehicle id="type1.9" depart="36.00" color="green">
        <route edges="5to4 4to16 16to1 1to17 17to3"/>
    </vehicle>
    <vehicle id="type11.2" depart="36.00" color="cyan">
        <route edges="54to52 52to53"/>
    </vehicle>
    <vehicle id="type12.2" depart="36.00" color="cyan">
        <route edges="53to52 52to51 51to50 50to47 47to46 46to43 43to42 42to40 40to41"/>
    </vehicle>
    <vehicle id="type15.2" depart="36.00" color="cyan">
        <route edges="66to64 64to63 63to62 62to57 57to56 56to55 55to52 52to51 51to50 50to47 47to46 46to43 43to45"/>
    </vehicle>
    <vehicle id="type17.2" depart="36.00" color="cyan">
        <route edges="71to69 69to72 72to73 73to76 76to81 81to83"/>
    </vehicle>
    <vehicle id="type18.2" depart="36.00" color="cyan">
        <route edges="70to69 69to71"/>
    </vehicle>
    <vehicle id="type4.2" depart="36.00" color="yellow">
        <route edges="20to19 19to18 18to7 7to6 6to15 15to1 1to16 16to4 4to5"/>
    </vehicle>
    <vehicle id="type5.2" depart="36.00" color="magenta">
        <route edges="22to21 21to19 19to18 18to7 7to6 6to15 15to1 1to14 14to2"/>
    </vehicle>
    <vehicle id="type13.5" depart="36.22" color="cyan">
        <route edges="61to60 60to57 57to62 62to63 63to64 64to67 67to68 68to69 69to72 72to73 73to76 76to81 81to83"/>
    </vehicle>
    <vehicle id="type8.3" depart="36.36" color="cyan">
        <route edges="45to43 43to42 42to40 40to41"/>
    </vehicle>
    <vehicle id="type7.10" depart="37.15" color="cyan">
        <route edges="44to43 43to46 46to47 47to50 50to51 51to52 52to55 55to56 56to57 57to62 62to63 63to64 64to67 67to68 68to69 69to72 72to73 73to76 76to81 81to83"/>
    </vehicle>
    <vehicle id="type9.10" depart="37.15" color="cyan">
        <route edges="49to47 47to48"/>
    </vehicle>
    <vehicle id="type0.21" depart="37.72" color="red">
        <route edges="2to14 14to1 1to17 17to3"/>
    </vehicle>
    <vehicle id="type2.9" depart="37.94" color="blue">
        <route edges="3to17 17to1 1to16 16to4 4to5"/>
    </vehicle>
    <vehicle id="type21.6" depart="38.92" color="cyan">
        <route edges="82to81 81to76 76to77 77to78 78to79 79to80"/>
    </vehicle>
    <vehicle id="type22.12" depart="39.26" color="cyan">
        <route edges="83to81 81to76 76to73 73to72 72to69 69to70"/>
    </vehicle>
    <vehicle id="type0.22" depart="39.51" color="red">
        <route edges="2to14 14to1 1to15 15to6 6to7 7to18 18to19 19to21 21to23 23to24 24to25 25to26 26to27 27to28 28to39 39to29 29to30 30to31 31to34 34to35 35to36 36to37 37to38 38to40 40to42 42to43 43to46 46to47 47to50 50to51 51to52 52to55 55to56 56to57 57to62 62to63 63to64 64to67 67to68 68to69 69to72 72to73 73to76 76to81 81to83"/>
    </vehicle>
    <vehicle id="type10.10" depart="39.77" color="cyan">
        <route edges="48to47 47to49"/>
    </vehicle>
    <vehicle id="type1.10" depart="40.00" color="green">
        <route edges="5to4 4to16 16to1 1to17 17to3"/>
    </vehicle>
    <vehicle id="type20.4" depart="40.45" color="cyan">
        <route edges="75to73 73to72 72to69 69to68 68to67 67to64 64to63 63to62 62to57 57to56 56to55 55to52 52to54"/>
    </vehicle>
    <vehicle id="type7.11" depart="40.87" color="cyan">
        <route edges="44to43 43to46 46to47 47to49"/>
    </vehicle>
    <vehicle id="type9.11" depart="40.87" color="cyan">
        <route edges="49to47 47to48"/>
    </vehicle>
    <vehicle id="type0.23" depart="41.31" color="red">
        <route edges="2to14 14to1 1to15 15to6 6to7 7to18 18to19 19to21 21to23 23to24 24to25 25to26 26to27 27to28 28to39 39to29 29to30 30to31 31to34 34to35 35to36 36to37 37to38 38to40 40to42 42to43 43to46 46to47 47to50 50to51 51to52 52to55 55to56 56to57 57to62 62to63 63to64 64to67 67to68 68to69 69to72 72to73 73to76 76to81 81to83"/>
    </vehicle>
    <vehicle id="type2.10" depart="42.15" color="blue">
        <route edges="3to17 17to1 1to16 16to4 4to5"/>
    </vehicle>
    <vehicle id="type22.13" depart="42.54" color="cyan">
        <route edges="83to81 81to82"/>
    </vehicle>
    <vehicle id="type0.24" depart="43.10" color="red">
        <route edges="2to14 14to1 1to15 15to6 6to7 7to18 18to19 19to21 21to23 23to24 24to25 25to26 26to27 27to28 28to39 39to29 29to30 30to31 31to34 34to35 35to36 36to37 37to38 38to40 40to42 42to43 43to46 46to47 47to50 50to51 51to52 52to55 55to56 56to57 57to62 62to63 63to64 64to67 67to68 68to69 69to72 72to73 73to76 76to81 81to82"/>
    </vehicle>
    <vehicle id="type14.5" depart="43.16" color="cyan">
        <route edges="59to58 58to57 57to62 62to63 63to64 64to66"/>
    </vehicle>
    <vehicle id="type13.6" depart="43.46" color="cyan">
        <route edges="61to60 60to57 57to58 58to59"/>
    </vehicle>
    <vehicle id="type10.11" depart="43.75" color="cyan">
        <route edges="48to47 47to49"/>
    </vehicle>
    <vehicle id="type1.11" depart="44.00" color="green">
        <route edges="5to4 4to16 16to1 1to17 17to3"/>
    </vehicle>
    <vehicle id="type7.12" depart="44.58" color="cyan">
        <route edges="44to43 43to45"/>
    </vehicle>
    <vehicle id="type9.12" depart="44.58" color="cyan">
        <route edges="49to47 47to48"/>
    </vehicle>
    <vehicle id="type0.25" depart="44.90" color="red">
        <route edges="2to14 14to1 1to15 15to6 6to7 7to18 18to19 19to21 21to23 23to24 24to25 25to26 26to27 27to28 28to39 39to29 29to30 30to31 31to34 34to35 35to36 36to37 37to38 38to40 40to42 42to43 43to46 46to47 47to50 50to51 51to52 52to54"/>
    </vehicle>
    <vehicle id="type21.7" depart="45.40" color="cyan">
        <route edges="82to81 81to83"/>
    </vehicle>
    <vehicle id="type22.14" depart="45.81" color="cyan">
        <route edges="83to81 81to76 76to73 73to72 72to69 69to70"/>
    </vehicle>
    <vehicle id="type2.11" depart="46.37" color="blue">
        <route edges="3to17 17to1 1to16 16to4 4to5"/>
    </vehicle>
    <vehicle id="type0.26" depart="46.70" color="red">
        <route edges="2to14 14to1 1to15 15to6 6to7 7to18 18to19 19to20"/>
    </vehicle>
    <vehicle id="type10.12" depart="47.72" color="cyan">
        <route edges="48to47 47to49"/>
    </vehicle>
    <vehicle id="type1.12" depart="48.00" color="green">
        <route edges="5to4 4to16 16to1 1to14 14to2"/>
    </vehicle>
    <vehicle id="type6.3" depart="48.21" color="cyan">
        <route edges="33to32 32to30 30to29 29to39 39to28 28to27 27to26 26to25 25to24 24to23 23to21 21to19 19to18 18to7 7to6 6to15 15to1 1to16 16to4 4to5"/>
    </vehicle>
    <vehicle id="type7.13" depart="48.30" color="cyan">
        <route edges="44to43 43to45"/>
    </vehicle>
    <vehicle id="type9.13" depart="48.30" color="cyan">
        <route edges="49to47 47to46 46to43 43to45"/>
    </vehicle>
    <vehicle id="type8.4" depart="48.48" color="cyan">
        <route edges="45to43 43to42 42to40 40to38 38to37 37to36 36to35 35to34 34to31 31to30 30to29 29to39 39to28 28to27 27to26 26to25 25to24 24to23 23to21 21to19 19to18 18to7 7to6 6to15 15to1 1to14 14to2"/>
    </vehicle>
    <vehicle id="type0.27" depart="48.49" color="red">
        <route edges="2to14 14to1 1to15 15to6 6to7 7to18 18to19 19to21 21to23 23to24 24to25 25to26 26to27 27to28 28to39 39to29 29to30 30to31 31to34 34to35 35to36 36to37 37to38 38to40 40to42 42to43 43to46 46to47 47to50 50to51 51to52 52to55 55to56 56to57 57to62 62to63 63to64 64to67 67to68 68to69 69to72 72to73 73to76 76to81 81to83"/>
    </vehicle>
    <vehicle id="type22.15" depart="49.08" color="cyan">
        <route edges="83to81 81to76 76to73 73to72 72to69 69to68 68to67 67to64 64to63 63to62 62to57 57to58 58to59"/>
    </vehicle>
    <vehicle id="type0.28" depart="50.29" color="red">
        <route edges="2to14 14to1 1to15 15to6 6to7 7to18 18to19 19to20"/>
    </vehicle>
    <vehicle id="type20.5" depart="50.56" color="cyan">
        <route edges="75to73 73to76 76to81 81to83"/>
    </vehicle>