<additional>
	<edgeData id="id_test1" file="myEdgeData" freq = "500"/>
</additional>